id: E83318
 1C w
 122 
   2x
 344 
 3R4G
-----
