id: 3F0AB4
   2M
1122 
 1C w
 3444
     
-----
